1397
SDF for all points - 7fee_POPC_75_CHOL_25
D 78 53 33
D 74 51 34
D 78 52 34
D 50 17 34
D 78 51 34
D 33 6 35
D 76 53 36
D 77 53 36
D 76 53 36
D 77 53 36
D 78 53 36
D 77 54 36
D 77 54 36
D 78 54 36
D 78 53 37
D 77 54 37
D 78 54 37
D 78 54 37
D 49 33 37
D 76 53 37
D 75 54 37
D 76 54 37
D 76 54 37
D 77 54 37
D 75 54 37
D 76 55 37
D 82 82 37
D 75 53 38
D 81 82 38
D 82 82 38
D 82 82 38
D 80 82 38
D 81 82 38
D 82 82 38
D 80 83 38
D 81 83 38
D 33 6 38
D 57 25 38
D 78 55 38
D 82 81 38
D 81 82 38
D 81 82 38
D 82 82 38
D 82 82 38
D 81 82 38
D 81 82 38
D 82 82 38
D 81 83 38
D 81 83 38
D 82 83 38
D 81 83 38
D 42 55 39
D 82 81 39
D 81 82 39
D 81 82 39
D 82 82 39
D 82 82 39
D 80 82 39
D 81 82 39
D 81 82 39
D 82 82 39
D 80 83 39
D 80 83 39
D 81 83 39
D 82 83 39
D 81 83 39
D 82 83 39
D 35 6 39
D 77 54 39
D 77 55 39
D 77 56 39
D 77 57 39
D 81 82 39
D 81 82 39
D 82 82 39
D 79 82 39
D 80 82 39
D 81 82 39
D 81 82 39
D 75 53 40
D 75 54 40
D 76 54 40
D 76 54 40
D 77 54 40
D 76 55 40
D 76 55 40
D 77 55 40
D 77 55 40
D 76 56 40
D 77 56 40
D 80 81 40
D 82 81 40
D 80 82 40
D 82 82 40
D 81 82 40
D 84 83 40
D 82 84 40
D 83 85 40
D 33 8 40
D 34 47 40
D 76 51 40
D 76 53 40
D 76 54 40
D 76 54 40
D 76 54 40
D 76 55 40
D 76 55 40
D 77 55 40
D 78 55 40
D 76 55 40
D 76 55 40
D 77 55 40
D 77 55 40
D 78 55 40
D 77 56 40
D 77 56 40
D 78 56 40
D 76 56 40
D 77 56 40
D 95 68 40
D 80 81 40
D 79 81 40
D 80 81 40
D 81 81 40
D 80 82 40
D 82 84 40
D 83 84 40
D 80 86 40
D 76 53 41
D 76 54 41
D 76 54 41
D 76 54 41
D 76 55 41
D 76 55 41
D 77 55 41
D 77 55 41
D 76 55 41
D 77 55 41
D 77 55 41
D 78 55 41
D 76 56 41
D 77 56 41
D 77 56 41
D 81 80 41
D 81 80 41
D 82 80 41
D 82 81 41
D 79 81 41
D 80 81 41
D 80 81 41
D 81 81 41
D 79 82 41
D 80 82 41
D 79 82 41
D 81 84 41
D 76 54 41
D 76 55 41
D 77 55 41
D 76 56 41
D 76 56 41
D 94 67 41
D 94 68 41
D 81 79 41
D 80 80 41
D 81 80 41
D 81 80 41
D 82 80 41
D 80 80 41
D 81 80 41
D 81 80 41
D 82 80 41
D 82 80 41
D 79 81 41
D 80 81 41
D 80 81 41
D 81 81 41
D 82 81 41
D 79 81 41
D 79 81 41
D 80 81 41
D 80 81 41
D 81 81 41
D 79 82 41
D 79 82 41
D 80 82 41
D 80 82 41
D 79 82 41
D 79 82 41
D 80 82 41
D 81 83 41
D 80 83 41
D 81 84 41
D 81 84 41
D 76 54 42
D 94 68 42
D 94 68 42
D 94 69 42
D 98 70 42
D 81 80 42
D 81 80 42
D 82 80 42
D 82 80 42
D 79 80 42
D 80 80 42
D 80 80 42
D 81 80 42
D 82 80 42
D 82 80 42
D 79 81 42
D 80 81 42
D 82 81 42
D 79 81 42
D 79 81 42
D 80 81 42
D 79 82 42
D 79 82 42
D 80 82 42
D 78 82 42
D 79 82 42
D 79 82 42
D 81 83 42
D 82 83 42
D 80 84 42
D 80 84 42
D 81 84 42
D 82 84 42
D 76 55 42
D 75 57 42
D 94 67 42
D 97 73 42
D 80 80 42
D 80 81 42
D 79 81 42
D 79 81 42
D 79 82 42
D 82 82 42
D 83 82 42
D 82 83 42
D 83 83 42
D 81 83 42
D 82 83 42
D 82 83 42
D 83 83 42
D 81 84 42
D 82 84 42
D 81 84 42
D 77 54 43
D 75 57 43
D 75 57 43
D 77 57 43
D 74 57 43
D 75 57 43
D 97 67 43
D 96 70 43
D 78 80 43
D 79 81 43
D 79 81 43
D 79 81 43
D 79 81 43
D 82 82 43
D 83 82 43
D 79 83 43
D 81 83 43
D 82 83 43
D 82 83 43
D 83 83 43
D 79 83 43
D 80 83 43
D 80 83 43
D 81 83 43
D 81 83 43
D 82 83 43
D 82 83 43
D 83 83 43
D 79 84 43
D 80 84 43
D 80 84 43
D 81 84 43
D 81 84 43
D 82 84 43
D 82 84 43
D 80 84 43
D 77 54 43
D 77 54 43
D 74 55 43
D 75 55 43
D 75 55 43
D 75 56 43
D 75 56 43
D 75 56 43
D 77 56 43
D 75 57 43
D 77 57 43
D 74 57 43
D 75 57 43
D 75 57 43
D 76 57 43
D 75 58 43
D 75 58 43
D 76 58 43
D 94 66 43
D 78 80 43
D 79 80 43
D 79 80 43
D 78 81 43
D 79 81 43
D 79 81 43
D 80 81 43
D 79 81 43
D 81 82 43
D 82 82 43
D 78 83 43
D 79 83 43
D 83 83 43
D 79 83 43
D 80 83 43
D 80 83 43
D 81 83 43
D 82 83 43
D 82 83 43
D 79 84 43
D 79 84 43
D 80 84 43
D 80 84 43
D 81 84 43
D 81 84 43
D 80 84 43
D 81 84 43
D 82 84 43
D 74 54 44
D 77 54 44
D 74 55 44
D 75 55 44
D 78 55 44
D 74 55 44
D 75 55 44
D 75 57 44
D 75 57 44
D 74 57 44
D 75 57 44
D 75 57 44
D 76 57 44
D 75 58 44
D 76 58 44
D 77 58 44
D 77 58 44
D 97 67 44
D 94 68 44
D 94 68 44
D 98 70 44
D 79 80 44
D 78 80 44
D 79 80 44
D 79 80 44
D 80 80 44
D 78 81 44
D 79 81 44
D 79 81 44
D 79 81 44
D 79 82 44
D 78 82 44
D 78 83 44
D 79 83 44
D 81 83 44
D 79 83 44
D 80 83 44
D 80 84 44
D 81 84 44
D 81 84 44
D 62 85 44
D 74 54 44
D 77 54 44
D 75 55 44
D 74 55 44
D 75 55 44
D 75 56 44
D 75 56 44
D 75 56 44
D 75 57 44
D 76 57 44
D 74 57 44
D 75 57 44
D 75 57 44
D 76 57 44
D 76 57 44
D 75 58 44
D 94 67 44
D 93 67 44
D 96 67 44
D 93 68 44
D 94 68 44
D 94 68 44
D 95 68 44
D 94 69 44
D 95 69 44
D 80 80 44
D 81 80 44
D 78 80 44
D 78 80 44
D 79 80 44
D 79 80 44
D 80 80 44
D 78 81 44
D 78 81 44
D 79 81 44
D 79 81 44
D 80 81 44
D 79 81 44
D 78 83 44
D 79 83 44
D 77 83 44
D 80 83 44
D 81 84 44
D 62 85 44
D 62 85 44
D 61 86 44
D 75 55 45
D 75 57 45
D 75 57 45
D 75 58 45
D 77 58 45
D 94 68 45
D 94 68 45
D 93 68 45
D 94 68 45
D 94 68 45
D 93 69 45
D 94 69 45
D 94 69 45
D 93 69 45
D 94 69 45
D 94 69 45
D 94 70 45
D 94 71 45
D 79 80 45
D 80 80 45
D 78 80 45
D 79 80 45
D 79 80 45
D 80 80 45
D 80 80 45
D 78 81 45
D 79 81 45
D 79 81 45
D 78 81 45
D 78 81 45
D 79 81 45
D 61 86 45
D 93 68 45
D 94 68 45
D 94 69 45
D 94 69 45
D 93 69 45
D 80 79 45
D 80 79 45
D 80 80 45
D 80 80 45
D 78 80 45
D 79 80 45
D 79 80 45
D 80 80 45
D 80 80 45
D 81 80 45
D 78 81 45
D 79 81 45
D 80 81 45
D 80 81 45
D 61 85 45
D 75 55 46
D 94 68 46
D 93 69 46
D 94 69 46
D 80 79 46
D 80 79 46
D 79 80 46
D 80 80 46
D 80 80 46
D 81 80 46
D 79 80 46
D 80 80 46
D 80 80 46
D 81 80 46
D 79 81 46
D 80 81 46
D 80 81 46
D 81 81 46
D 79 81 46
D 80 81 46
D 80 83 46
D 81 83 46
D 81 83 46
D 74 55 46
D 75 55 46
D 75 55 46
D 91 69 46
D 96 70 46
D 79 79 46
D 80 79 46
D 80 79 46
D 80 80 46
D 80 80 46
D 81 80 46
D 80 80 46
D 80 80 46
D 81 80 46
D 81 80 46
D 80 81 46
D 81 81 46
D 79 81 46
D 79 81 46
D 80 81 46
D 81 81 46
D 80 82 46
D 81 82 46
D 81 82 46
D 80 82 46
D 81 82 46
D 82 82 46
D 80 83 46
D 81 83 46
D 81 83 46
D 80 83 46
D 75 55 47
D 91 68 47
D 91 68 47
D 91 69 47
D 92 69 47
D 91 69 47
D 91 72 47
D 80 80 47
D 79 81 47
D 80 81 47
D 78 81 47
D 79 81 47
D 81 81 47
D 78 82 47
D 80 82 47
D 80 82 47
D 81 82 47
D 81 82 47
D 78 82 47
D 79 82 47
D 80 82 47
D 81 82 47
D 80 83 47
D 80 83 47
D 81 83 47
D 62 88 47
D 74 55 47
D 74 55 47
D 75 58 47
D 95 66 47
D 95 67 47
D 91 68 47
D 91 68 47
D 91 69 47
D 91 69 47
D 94 70 47
D 78 82 47
D 79 82 47
D 81 82 47
D 81 82 47
D 60 86 47
D 75 58 48
D 75 58 48
D 76 58 48
D 74 59 48
D 95 66 48
D 91 68 48
D 90 68 48
D 91 69 48
D 94 69 48
D 97 69 48
D 93 69 48
D 94 69 48
D 94 70 48
D 93 70 48
D 78 80 48
D 78 81 48
D 78 81 48
D 77 81 48
D 78 81 48
D 78 81 48
D 78 82 48
D 78 82 48
D 60 85 48
D 77 55 48
D 74 57 48
D 75 57 48
D 74 58 48
D 74 58 48
D 75 58 48
D 74 58 48
D 74 58 48
D 75 58 48
D 75 58 48
D 74 59 48
D 94 67 48
D 93 69 48
D 93 69 48
D 94 69 48
D 93 70 48
D 94 70 48
D 93 70 48
D 93 70 48
D 94 70 48
D 78 80 48
D 77 80 48
D 77 80 48
D 78 80 48
D 78 80 48
D 77 81 48
D 77 81 48
D 78 81 48
D 78 81 48
D 79 81 48
D 77 81 48
D 78 81 48
D 78 81 48
D 78 82 48
D 60 85 48
D 60 85 48
D 60 85 48
D 60 86 48
D 60 86 48
D 61 86 48
D 74 57 49
D 73 57 49
D 74 57 49
D 74 57 49
D 75 57 49
D 73 58 49
D 74 58 49
D 74 58 49
D 75 58 49
D 75 58 49
D 73 58 49
D 74 58 49
D 74 58 49
D 75 58 49
D 75 58 49
D 75 59 49
D 94 67 49
D 93 70 49
D 77 80 49
D 78 80 49
D 77 80 49
D 77 80 49
D 78 80 49
D 78 80 49
D 77 81 49
D 77 81 49
D 78 81 49
D 78 81 49
D 78 81 49
D 78 81 49
D 60 86 49
D 60 86 49
D 60 90 49
D 76 56 49
D 76 56 49
D 73 57 49
D 74 57 49
D 74 57 49
D 74 57 49
D 75 57 49
D 73 58 49
D 74 58 49
D 74 58 49
D 75 58 49
D 74 58 49
D 74 58 49
D 74 59 49
D 95 68 49
D 77 80 49
D 78 80 49
D 77 80 49
D 77 80 49
D 78 80 49
D 78 80 49
D 77 81 49
D 77 81 49
D 78 81 49
D 78 81 49
D 78 81 49
D 61 86 49
D 61 86 49
D 73 57 50
D 73 57 50
D 74 57 50
D 74 57 50
D 74 58 50
D 74 58 50
D 74 58 50
D 77 79 50
D 77 79 50
D 77 80 50
D 77 80 50
D 78 80 50
D 77 80 50
D 78 80 50
D 78 81 50
D 78 81 50
D 59 90 50
D 74 57 50
D 74 58 50
D 77 79 50
D 77 80 50
D 77 80 50
D 77 80 50
D 78 80 50
D 77 81 50
D 73 56 51
D 74 56 51
D 74 57 51
D 75 58 51
D 77 79 51
D 77 80 51
D 63 88 51
D 74 54 51
D 75 55 51
D 74 56 51
D 73 56 51
D 74 56 51
D 74 56 51
D 74 57 51
D 60 88 51
D 61 88 51
D 60 89 51
D 62 89 51
D 74 54 52
D 75 54 52
D 74 54 52
D 75 54 52
D 75 54 52
D 74 55 52
D 74 55 52
D 75 55 52
D 74 55 52
D 75 55 52
D 74 56 52
D 74 56 52
D 75 56 52
D 74 56 52
D 74 56 52
D 77 81 52
D 78 81 52
D 59 88 52
D 61 89 52
D 72 52 52
D 74 54 52
D 75 54 52
D 74 55 52
D 74 55 52
D 75 55 52
D 74 55 52
D 74 55 52
D 75 55 52
D 74 56 52
D 74 56 52
D 74 56 52
D 78 80 52
D 77 80 52
D 77 81 52
D 77 81 52
D 78 81 52
D 77 81 52
D 60 88 52
D 60 89 52
D 64 90 52
D 74 51 53
D 72 51 53
D 73 51 53
D 72 52 53
D 72 52 53
D 73 52 53
D 74 52 53
D 71 52 53
D 71 52 53
D 72 52 53
D 72 52 53
D 73 52 53
D 71 53 53
D 72 53 53
D 74 55 53
D 75 55 53
D 74 56 53
D 74 57 53
D 78 80 53
D 77 80 53
D 78 80 53
D 78 80 53
D 79 80 53
D 77 81 53
D 77 81 53
D 78 81 53
D 78 81 53
D 79 81 53
D 78 81 53
D 64 91 53
D 73 50 53
D 73 51 53
D 73 51 53
D 74 51 53
D 74 51 53
D 73 51 53
D 74 51 53
D 74 51 53
D 75 51 53
D 71 52 53
D 72 52 53
D 72 52 53
D 73 52 53
D 73 52 53
D 74 52 53
D 74 52 53
D 75 52 53
D 71 52 53
D 71 52 53
D 72 52 53
D 72 52 53
D 75 52 53
D 71 53 53
D 71 53 53
D 72 53 53
D 71 53 53
D 78 80 53
D 78 80 53
D 77 81 53
D 78 81 53
D 79 81 53
D 60 88 53
D 61 91 53
D 73 51 54
D 74 51 54
D 74 51 54
D 75 51 54
D 73 52 54
D 73 52 54
D 74 52 54
D 71 52 54
D 72 52 54
D 74 52 54
D 75 52 54
D 78 81 54
D 72 87 54
D 72 87 54
D 74 52 54
D 72 53 55
D 67 50 55
D 73 52 55
D 74 52 55
D 74 53 55
D 74 53 55
D 74 53 55
D 73 57 55
D 85 78 55
D 67 50 56
D 68 50 56
D 70 50 56
D 70 50 56
D 71 50 56
D 69 51 56
D 70 51 56
D 70 51 56
D 74 52 56
D 73 53 56
D 73 53 56
D 74 53 56
D 74 53 56
D 73 53 56
D 74 53 56
D 72 58 56
D 73 58 56
D 74 85 56
D 73 49 56
D 67 50 56
D 70 50 56
D 70 50 56
D 67 50 56
D 69 50 56
D 69 50 56
D 70 50 56
D 70 50 56
D 69 51 56
D 69 51 56
D 70 51 56
D 70 51 56
D 71 51 56
D 74 52 56
D 73 53 56
D 73 53 56
D 74 53 56
D 74 53 56
D 75 53 56
D 73 53 56
D 73 53 56
D 74 53 56
D 72 57 56
D 73 57 56
D 75 85 56
D 74 86 56
D 75 86 56
D 69 50 57
D 69 50 57
D 70 50 57
D 70 50 57
D 68 50 57
D 68 50 57
D 69 50 57
D 69 50 57
D 70 50 57
D 70 50 57
D 71 50 57
D 69 51 57
D 70 51 57
D 70 51 57
D 71 51 57
D 70 51 57
D 72 84 57
D 74 86 57
D 74 86 57
D 76 86 57
D 74 87 57
D 74 95 57
D 75 49 57
D 70 49 57
D 72 49 57
D 72 49 57
D 73 49 57
D 74 49 57
D 70 50 57
D 71 50 57
D 72 50 57
D 72 50 57
D 73 50 57
D 73 50 57
D 70 50 57
D 71 50 57
D 69 51 57
D 70 51 57
D 70 51 57
D 68 51 57
D 71 51 57
D 48 62 57
D 73 87 57
D 74 87 57
D 73 87 57
D 73 87 57
D 74 87 57
D 73 88 57
D 74 88 57
D 68 48 58
D 71 49 58
D 71 49 58
D 72 49 58
D 73 49 58
D 73 49 58
D 71 50 58
D 72 50 58
D 72 50 58
D 73 50 58
D 73 50 58
D 74 50 58
D 70 50 58
D 72 50 58
D 71 51 58
D 85 78 58
D 73 87 58
D 74 87 58
D 74 87 58
D 73 87 58
D 74 87 58
D 73 88 58
D 74 88 58
D 74 88 58
D 73 88 58
D 74 88 58
D 70 49 58
D 72 50 58
D 73 50 58
D 72 50 58
D 72 50 58
D 68 51 58
D 71 51 58
D 72 51 58
D 73 51 58
D 71 52 58
D 72 52 58
D 72 52 58
D 73 52 58
D 71 52 58
D 72 52 58
D 86 78 58
D 74 87 58
D 74 87 58
D 74 87 58
D 73 88 58
D 74 88 58
D 75 88 58
D 73 88 58
D 73 88 58
D 74 88 58
D 73 89 58
D 73 89 58
D 75 93 58
D 68 49 59
D 67 51 59
D 71 52 59
D 72 52 59
D 73 52 59
D 71 52 59
D 72 52 59
D 72 52 59
D 86 76 59
D 84 80 59
D 74 87 59
D 72 95 59
D 74 95 59
D 67 49 59
D 66 50 59
D 84 78 59
D 83 79 59
D 84 79 59
D 83 80 59
D 84 80 59
D 83 80 59
D 83 80 59
D 84 80 59
D 84 80 59
D 83 81 59
D 75 88 59
D 85 89 59
D 74 93 59
D 74 93 59
D 69 48 60
D 70 50 60
D 66 50 60
D 68 51 60
D 84 77 60
D 84 78 60
D 83 79 60
D 82 80 60
D 83 80 60
D 83 81 60
D 73 86 60
D 74 86 60
D 76 87 60
D 75 88 60
D 75 88 60
D 76 88 60
D 77 88 60
D 72 94 60
D 68 50 60
D 70 50 60
D 70 50 60
D 71 50 60
D 71 50 60
D 66 50 60
D 71 50 60
D 67 51 60
D 69 51 60
D 84 76 60
D 82 79 60
D 83 80 60
D 73 85 60
D 73 86 60
D 76 86 60
D 73 86 60
D 74 86 60
D 75 86 60
D 75 86 60
D 76 86 60
D 73 87 60
D 75 87 60
D 76 87 60
D 74 87 60
D 75 87 60
D 75 87 60
D 76 87 60
D 75 88 60
D 75 88 60
D 76 88 60
D 76 88 60
D 68 48 61
D 70 49 61
D 71 49 61
D 70 50 61
D 71 50 61
D 71 50 61
D 71 50 61
D 69 51 61
D 69 51 61
D 37 66 61
D 83 76 61
D 84 76 61
D 83 77 61
D 83 77 61
D 84 77 61
D 84 77 61
D 83 77 61
D 81 78 61
D 85 78 61
D 85 78 61
D 82 78 61
D 84 78 61
D 85 78 61
D 85 79 61
D 72 84 61
D 73 84 61
D 73 84 61
D 73 85 61
D 73 85 61
D 73 85 61
D 73 85 61
D 74 85 61
D 95 85 61
D 73 86 61
D 73 86 61
D 74 86 61
D 75 86 61
D 75 86 61
D 76 86 61
D 76 86 61
D 75 87 61
D 76 87 61
D 73 87 61
D 76 87 61
D 73 88 61
D 75 88 61
D 75 88 61
D 76 88 61
D 73 88 61
D 75 88 61
D 75 88 61
D 76 88 61
D 75 89 61
D 83 89 61
D 67 48 61
D 70 50 61
D 83 76 61
D 83 76 61
D 82 77 61
D 83 77 61
D 83 77 61
D 84 77 61
D 86 77 61
D 82 77 61
D 83 77 61
D 83 77 61
D 85 77 61
D 82 78 61
D 82 78 61
D 83 78 61
D 84 78 61
D 85 78 61
D 86 78 61
D 85 78 61
D 85 78 61
D 85 79 61
D 85 80 61
D 73 84 61
D 72 85 61
D 73 85 61
D 73 85 61
D 74 85 61
D 73 85 61
D 73 86 61
D 73 86 61
D 74 86 61
D 73 86 61
D 73 87 61
D 75 87 61
D 76 87 61
D 74 87 61
D 75 87 61
D 76 87 61
D 76 87 61
D 72 88 61
D 73 88 61
D 74 88 61
D 75 88 61
D 76 88 61
D 75 89 61
D 75 89 61
D 85 74 62
D 84 75 62
D 83 76 62
D 83 76 62
D 83 76 62
D 84 76 62
D 82 77 62
D 83 77 62
D 83 77 62
D 84 77 62
D 82 77 62
D 82 77 62
D 83 77 62
D 83 77 62
D 84 77 62
D 86 77 62
D 86 77 62
D 82 78 62
D 83 78 62
D 84 78 62
D 85 78 62
D 85 78 62
D 86 78 62
D 86 79 62
D 85 79 62
D 73 85 62
D 74 85 62
D 73 85 62
D 73 85 62
D 73 86 62
D 75 88 62
D 66 50 62
D 85 75 62
D 83 76 62
D 84 76 62
D 83 76 62
D 83 76 62
D 82 77 62
D 83 77 62
D 83 77 62
D 83 77 62
D 83 77 62
D 84 77 62
D 86 77 62
D 83 78 62
D 85 78 62
D 85 78 62
D 73 86 62
D 75 89 62
D 84 76 63
D 83 76 63
D 82 77 63
D 83 77 63
D 84 77 63
D 86 77 63
D 85 78 63
D 86 78 63
D 86 78 63
D 85 79 63
D 86 79 63
D 85 79 63
D 83 80 63
D 95 82 63
D 74 89 63
D 74 89 63
D 66 48 63
D 66 50 63
D 67 50 63
D 66 51 63
D 84 76 63
D 84 76 63
D 86 77 63
D 85 78 63
D 85 78 63
D 86 78 63
D 84 79 63
D 85 79 63
D 86 79 63
D 84 79 63
D 84 79 63
D 85 79 63
D 84 80 63
D 86 80 63
D 95 83 63
D 83 90 63
D 66 50 64
D 67 50 64
D 84 77 64
D 85 77 64
D 84 77 64
D 86 77 64
D 85 78 64
D 84 78 64
D 85 78 64
D 84 79 64
D 85 79 64
D 85 79 64
D 86 79 64
D 84 79 64
D 84 79 64
D 85 79 64
D 85 79 64
D 83 80 64
D 74 86 64
D 74 87 64
D 84 87 64
D 74 88 64
D 74 94 64
D 66 50 64
D 67 50 64
D 67 50 64
D 67 51 64
D 84 75 64
D 85 75 64
D 84 75 64
D 84 76 64
D 86 78 64
D 85 79 64
D 84 79 64
D 74 86 64
D 74 86 64
D 74 87 64
D 84 74 65
D 83 75 65
D 84 75 65
D 84 75 65
D 83 76 65
D 84 76 65
D 83 76 65
D 84 76 65
D 87 76 65
D 87 77 65
D 74 86 65
D 74 86 65
D 74 87 65
D 84 88 65
D 74 89 65
D 84 74 65
D 84 75 65
D 84 75 65
D 83 75 65
D 83 75 65
D 84 75 65
D 83 76 65
D 83 76 65
D 83 76 65
D 86 77 65
D 87 77 65
D 86 77 65
D 87 77 65
D 84 78 65
D 86 78 65
D 86 78 65
D 84 78 65
D 84 79 65
D 83 75 66
D 84 75 66
D 84 75 66
D 83 75 66
D 84 75 66
D 83 76 66
D 83 76 66
D 84 76 66
D 83 76 66
D 84 76 66
D 84 77 66
D 86 77 66
D 87 77 66
D 87 77 66
D 86 77 66
D 87 77 66
D 84 78 66
D 86 78 66
D 86 78 66
D 87 78 66
D 86 78 66
D 85 79 66
D 73 89 66
D 75 90 66
D 67 49 66
D 86 76 66
D 83 77 66
D 84 77 66
D 87 77 66
D 87 77 66
D 84 78 66
D 85 78 66
D 84 78 66
D 84 78 66
D 85 78 66
D 84 79 66
D 85 79 66
D 84 79 66
D 84 78 67
D 85 78 67
D 84 78 67
D 85 78 67
D 84 78 67
D 85 78 67
D 85 75 68
D 85 75 68
D 85 76 69
D 85 76 69
D 86 76 69
D 85 76 69
D 86 76 69
D 85 77 69
D 86 76 69
D 86 76 69
D 85 76 69
D 86 76 69
D 85 76 70
