1436
MERGED SDF for all points - 7fee_POPC_75_CHOL_25
D 1.000 79.000 40.000
D 1.000 90.000 43.000
D 1.000 94.000 39.000
D 2.000 85.000 35.000
D 2.000 91.000 40.000
D 2.000 92.000 37.000
D 3.000 80.000 36.000
D 3.000 80.000 41.000
D 3.000 82.000 36.000
D 3.000 96.000 41.000
D 4.000 96.000 47.000
D 5.000 83.000 40.000
D 7.000 84.000 52.000
D 9.000 66.000 39.000
D 9.000 85.000 40.000
D 9.000 88.000 41.000
D 10.000 57.000 41.000
D 10.000 59.000 43.000
D 10.000 92.000 49.000
D 11.000 27.000 39.000
D 11.000 64.000 38.000
D 11.000 97.000 43.000
D 12.000 61.000 46.000
D 13.000 52.000 40.000
D 13.000 54.000 42.000
D 13.000 54.000 44.000
D 13.000 59.000 41.000
D 13.000 63.000 39.000
D 13.000 66.000 39.000
D 13.000 68.000 38.000
D 14.000 52.000 46.000
D 14.000 63.000 37.000
D 15.000 9.000 61.000
D 15.000 19.000 67.000
D 15.000 53.000 41.000
D 15.000 61.000 38.000
D 15.000 65.000 40.000
D 16.000 64.000 40.000
D 16.000 71.000 45.000
D 17.000 16.000 63.000
D 17.000 18.000 63.000
D 17.000 65.000 40.000
D 18.000 12.000 43.000
D 18.000 63.000 39.000
D 18.000 65.000 39.000
D 18.000 71.000 60.000
D 19.000 69.000 59.000
D 20.000 10.000 54.000
D 20.000 68.000 62.000
D 21.000 30.000 62.000
D 21.000 72.000 61.000
D 21.000 78.000 60.000
D 22.000 7.000 65.000
D 22.000 26.000 64.000
D 22.000 62.000 63.000
D 23.000 28.000 59.000
D 23.000 68.000 42.000
D 23.000 68.000 55.000
D 24.000 61.000 64.000
D 24.000 62.000 61.000
D 24.000 69.000 39.000
D 24.000 71.000 49.000
D 25.000 5.000 65.000
D 25.000 9.000 64.000
D 25.000 21.000 62.000
D 25.000 25.000 60.000
D 25.000 28.000 63.000
D 25.000 58.000 62.000
D 25.000 59.000 62.000
D 25.000 60.000 60.000
D 25.000 60.000 64.000
D 25.000 61.000 62.000
D 25.000 61.000 65.000
D 25.000 62.000 63.000
D 25.000 64.000 62.000
D 25.000 65.000 61.000
D 25.000 66.000 55.000
D 25.000 70.000 56.000
D 26.000 24.000 60.000
D 26.000 33.000 60.000
D 26.000 59.000 61.000
D 26.000 62.000 60.000
D 26.000 63.000 59.000
D 26.000 64.000 66.000
D 26.000 66.000 43.000
D 26.000 66.000 57.000
D 26.000 67.000 61.000
D 26.000 69.000 59.000
D 27.000 61.000 58.000
D 27.000 61.000 63.000
D 27.000 67.000 60.000
D 28.000 6.000 64.000
D 28.000 18.000 63.000
D 28.000 54.000 64.000
D 28.000 59.000 62.000
D 28.000 63.000 60.000
D 28.000 77.000 37.000
D 29.000 46.000 61.000
D 29.000 58.000 61.000
D 29.000 59.000 59.000
D 29.000 81.000 39.000
D 29.000 82.000 40.000
D 30.000 37.000 61.000
D 30.000 77.000 41.000
D 30.000 82.000 43.000
D 30.000 83.000 45.000
D 31.000 2.000 63.000
D 31.000 39.000 61.000
D 31.000 54.000 41.000
D 31.000 80.000 34.000
D 31.000 81.000 38.000
D 31.000 83.000 37.000
D 31.000 83.000 39.000
D 31.000 85.000 41.000
D 32.000 54.000 41.000
D 32.000 78.000 37.000
D 32.000 78.000 40.000
D 32.000 79.000 38.000
D 32.000 80.000 37.000
D 32.000 81.000 39.000
D 32.000 82.000 40.000
D 32.000 84.000 40.000
D 32.000 85.000 38.000
D 33.000 6.000 35.000
D 33.000 6.000 38.000
D 33.000 8.000 40.000
D 33.000 24.000 68.000
D 33.000 47.000 57.000
D 33.000 76.000 39.000
D 33.000 82.000 41.000
D 34.000 47.000 40.000
D 34.000 49.000 62.000
D 34.000 54.000 61.000
D 34.000 56.000 61.000
D 34.000 81.000 41.000
D 34.000 85.000 35.000
D 34.000 85.000 42.000
D 34.000 95.000 39.000
D 34.000 123.000 52.000
D 35.000 6.000 39.000
D 35.000 51.000 61.000
D 35.000 82.000 37.000
D 35.000 96.000 39.000
D 36.000 21.000 41.000
D 36.000 52.000 39.000
D 36.000 55.000 58.000
D 36.000 55.000 60.000
D 36.000 80.000 42.000
D 36.000 83.000 36.000
D 36.000 83.000 38.000
D 36.000 128.000 61.000
D 37.000 57.000 57.000
D 37.000 66.000 61.000
D 37.000 84.000 38.000
D 37.000 95.000 37.000
D 37.000 95.000 38.000
D 37.000 97.000 36.000
D 37.000 98.000 38.000
D 37.000 100.000 33.000
D 37.000 100.000 38.000
D 37.000 125.000 56.000
D 38.000 2.000 68.000
D 38.000 51.000 40.000
D 38.000 51.000 41.000
D 38.000 51.000 61.000
D 38.000 82.000 40.000
D 38.000 96.000 36.000
D 39.000 51.000 37.000
D 39.000 101.000 35.000
D 41.000 4.000 60.000
D 41.000 48.000 37.000
D 41.000 81.000 37.000
D 41.000 98.000 38.000
D 41.000 127.000 44.000
D 42.000 18.000 64.000
D 42.000 49.000 35.000
D 42.000 55.000 39.000
D 42.000 79.000 38.000
D 43.000 16.000 44.000
D 43.000 49.000 39.000
D 43.000 50.000 39.000
D 43.000 131.000 53.000
D 43.000 133.000 57.000
D 44.000 86.000 44.000
D 44.000 102.000 35.000
D 44.000 113.000 51.000
D 45.000 18.000 65.000
D 45.000 84.000 42.000
D 45.000 85.000 39.000
D 45.000 101.000 37.000
D 46.000 86.000 43.000
D 47.000 83.000 37.000
D 47.000 86.000 38.000
D 47.000 86.000 39.000
D 47.000 88.000 36.000
D 48.000 5.000 66.000
D 48.000 62.000 57.000
D 48.000 83.000 39.000
D 48.000 84.000 38.000
D 48.000 85.000 36.000
D 48.000 85.000 41.000
D 48.000 86.000 39.000
D 48.000 87.000 39.000
D 48.000 87.000 40.000
D 48.000 87.000 41.000
D 49.000 9.000 66.000
D 49.000 33.000 37.000
D 49.000 83.000 39.000
D 49.000 84.000 36.000
D 49.000 84.000 39.000
D 49.000 85.000 36.000
D 49.000 85.000 37.000
D 49.000 85.000 39.000
D 49.000 87.000 37.000
D 49.000 87.000 38.000
D 49.000 87.000 40.000
D 49.000 88.000 37.000
D 49.000 88.000 39.000
D 50.000 17.000 34.000
D 50.000 70.000 54.000
D 50.000 72.000 53.000
D 50.000 86.000 37.000
D 50.000 87.000 36.000
D 50.000 87.000 37.000
D 50.000 87.000 42.000
D 50.000 88.000 39.000
D 50.000 88.000 41.000
D 51.000 86.000 37.000
D 51.000 88.000 36.000
D 51.000 88.000 39.000
D 51.000 89.000 34.000
D 51.000 89.000 37.000
D 51.000 135.000 55.000
D 52.000 24.000 59.000
D 52.000 88.000 35.000
D 53.000 65.000 48.000
D 53.000 76.000 56.000
D 54.000 5.000 45.000
D 54.000 62.000 48.000
D 54.000 63.000 45.000
D 54.000 64.000 47.000
D 54.000 64.000 48.000
D 54.000 65.000 47.000
D 54.000 65.000 48.000
D 54.000 81.000 52.000
D 55.000 64.000 47.000
D 55.000 75.000 58.000
D 55.000 79.000 58.000
D 56.000 63.000 47.000
D 56.000 65.000 45.000
D 56.000 65.000 48.000
D 56.000 66.000 49.000
D 56.000 79.000 58.000
D 56.000 101.000 38.000
D 57.000 10.000 66.000
D 57.000 25.000 38.000
D 57.000 65.000 49.000
D 57.000 65.000 50.000
D 57.000 66.000 49.000
D 57.000 67.000 49.000
D 57.000 67.000 53.000
D 58.000 63.000 46.000
D 58.000 63.000 47.000
D 58.000 64.000 46.000
D 58.000 64.000 49.000
D 58.000 64.000 50.000
D 58.000 65.000 46.000
D 58.000 65.000 49.000
D 58.000 65.000 50.000
D 58.000 66.000 46.000
D 58.000 66.000 47.000
D 58.000 66.000 49.000
D 58.000 67.000 46.000
D 58.000 67.000 53.000
D 58.000 68.000 49.000
D 58.000 68.000 53.000
D 59.000 63.000 45.000
D 59.000 63.000 46.000
D 59.000 63.000 47.000
D 59.000 64.000 46.000
D 59.000 64.000 47.000
D 59.000 65.000 46.000
D 59.000 65.000 49.000
D 59.000 65.000 50.000
D 59.000 66.000 45.000
D 59.000 66.000 46.000
D 59.000 66.000 49.000
D 59.000 67.000 45.000
D 59.000 67.000 46.000
D 59.000 68.000 50.000
D 59.000 88.000 52.000
D 59.000 90.000 50.000
D 60.000 63.000 45.000
D 60.000 63.000 46.000
D 60.000 64.000 46.000
D 60.000 64.000 47.000
D 60.000 65.000 49.000
D 60.000 65.000 50.000
D 60.000 66.000 50.000
D 60.000 67.000 45.000
D 60.000 67.000 46.000
D 60.000 67.000 49.000
D 60.000 67.000 50.000
D 60.000 85.000 48.000
D 60.000 86.000 47.000
D 60.000 86.000 48.000
D 60.000 86.000 49.000
D 60.000 88.000 51.000
D 60.000 88.000 52.000
D 60.000 88.000 53.000
D 60.000 89.000 51.000
D 60.000 89.000 52.000
D 60.000 90.000 49.000
D 60.000 98.000 37.000
D 61.000 65.000 47.000
D 61.000 65.000 48.000
D 61.000 66.000 47.000
D 61.000 66.000 48.000
D 61.000 67.000 46.000
D 61.000 67.000 49.000
D 61.000 67.000 50.000
D 61.000 68.000 46.000
D 61.000 85.000 45.000
D 61.000 86.000 44.000
D 61.000 86.000 45.000
D 61.000 86.000 48.000
D 61.000 86.000 49.000
D 61.000 88.000 51.000
D 61.000 89.000 52.000
D 61.000 91.000 53.000
D 62.000 64.000 47.000
D 62.000 64.000 48.000
D 62.000 65.000 44.000
D 62.000 65.000 47.000
D 62.000 65.000 48.000
D 62.000 66.000 44.000
D 62.000 66.000 47.000
D 62.000 66.000 48.000
D 62.000 67.000 47.000
D 62.000 68.000 47.000
D 62.000 85.000 44.000
D 62.000 88.000 47.000
D 62.000 89.000 51.000
D 63.000 14.000 43.000
D 63.000 14.000 58.000
D 63.000 65.000 44.000
D 63.000 65.000 45.000
D 63.000 66.000 44.000
D 63.000 66.000 45.000
D 63.000 88.000 51.000
D 64.000 90.000 52.000
D 64.000 91.000 53.000
D 65.000 22.000 42.000
D 65.000 87.000 38.000
D 65.000 88.000 38.000
D 66.000 48.000 63.000
D 66.000 50.000 59.000
D 66.000 50.000 60.000
D 66.000 50.000 62.000
D 66.000 50.000 63.000
D 66.000 50.000 64.000
D 66.000 51.000 63.000
D 66.000 88.000 37.000
D 67.000 48.000 61.000
D 67.000 49.000 59.000
D 67.000 49.000 66.000
D 67.000 50.000 55.000
D 67.000 50.000 56.000
D 67.000 50.000 63.000
D 67.000 50.000 64.000
D 67.000 51.000 59.000
D 67.000 51.000 60.000
D 67.000 51.000 64.000
D 67.000 86.000 40.000
D 67.000 86.000 41.000
D 67.000 87.000 40.000
D 68.000 48.000 58.000
D 68.000 48.000 61.000
D 68.000 49.000 59.000
D 68.000 50.000 56.000
D 68.000 50.000 57.000
D 68.000 50.000 60.000
D 68.000 51.000 57.000
D 68.000 51.000 58.000
D 68.000 51.000 60.000
D 68.000 85.000 40.000
D 68.000 86.000 40.000
D 68.000 86.000 41.000
D 68.000 89.000 37.000
D 68.000 89.000 44.000
D 68.000 90.000 41.000
D 68.000 90.000 43.000
D 68.000 90.000 47.000
D 68.000 90.000 48.000
D 68.000 92.000 44.000
D 68.000 92.000 46.000
D 68.000 93.000 48.000
D 68.000 93.000 51.000
D 69.000 44.000 41.000
D 69.000 48.000 60.000
D 69.000 50.000 56.000
D 69.000 50.000 57.000
D 69.000 51.000 56.000
D 69.000 51.000 57.000
D 69.000 51.000 60.000
D 69.000 51.000 61.000
D 69.000 88.000 36.000
D 69.000 88.000 37.000
D 69.000 89.000 37.000
D 69.000 89.000 38.000
D 69.000 89.000 39.000
D 69.000 89.000 48.000
D 69.000 90.000 39.000
D 69.000 90.000 44.000
D 69.000 91.000 40.000
D 69.000 91.000 45.000
D 69.000 91.000 47.000
D 69.000 91.000 51.000
D 69.000 92.000 43.000
D 69.000 92.000 44.000
D 69.000 92.000 45.000
D 69.000 92.000 47.000
D 69.000 92.000 48.000
D 69.000 92.000 51.000
D 70.000 24.000 38.000
D 70.000 49.000 57.000
D 70.000 49.000 58.000
D 70.000 49.000 61.000
D 70.000 50.000 56.000
D 70.000 50.000 57.000
D 70.000 50.000 58.000
D 70.000 50.000 60.000
D 70.000 50.000 61.000
D 70.000 51.000 56.000
D 70.000 51.000 57.000
D 70.000 86.000 44.000
D 70.000 88.000 37.000
D 70.000 88.000 40.000
D 70.000 88.000 41.000
D 70.000 89.000 37.000
D 70.000 90.000 39.000
D 70.000 91.000 40.000
D 70.000 91.000 42.000
D 70.000 91.000 43.000
D 70.000 91.000 44.000
D 70.000 92.000 40.000
D 70.000 92.000 42.000
D 70.000 92.000 43.000
D 70.000 92.000 45.000
D 70.000 92.000 51.000
D 71.000 45.000 39.000
D 71.000 49.000 58.000
D 71.000 49.000 61.000
D 71.000 50.000 56.000
D 71.000 50.000 57.000
D 71.000 50.000 58.000
D 71.000 50.000 60.000
D 71.000 50.000 61.000
D 71.000 51.000 56.000
D 71.000 51.000 57.000
D 71.000 51.000 58.000
D 71.000 52.000 53.000
D 71.000 52.000 54.000
D 71.000 52.000 58.000
D 71.000 52.000 59.000
D 71.000 53.000 53.000
D 71.000 85.000 43.000
D 71.000 86.000 43.000
D 71.000 86.000 44.000
D 71.000 87.000 40.000
D 71.000 89.000 37.000
D 71.000 90.000 44.000
D 71.000 91.000 36.000
D 71.000 92.000 48.000
D 71.000 94.000 50.000
D 72.000 41.000 36.000
D 72.000 41.000 38.000
D 72.000 49.000 57.000
D 72.000 49.000 58.000
D 72.000 50.000 57.000
D 72.000 50.000 58.000
D 72.000 51.000 53.000
D 72.000 51.000 58.000
D 72.000 52.000 52.000
D 72.000 52.000 53.000
D 72.000 52.000 54.000
D 72.000 52.000 58.000
D 72.000 52.000 59.000
D 72.000 53.000 53.000
D 72.000 53.000 55.000
D 72.000 57.000 56.000
D 72.000 58.000 56.000
D 72.000 84.000 37.000
D 72.000 84.000 57.000
D 72.000 84.000 61.000
D 72.000 85.000 36.000
D 72.000 85.000 61.000
D 72.000 86.000 37.000
D 72.000 86.000 38.000
D 72.000 86.000 39.000
D 72.000 87.000 37.000
D 72.000 87.000 38.000
D 72.000 87.000 54.000
D 72.000 88.000 61.000
D 72.000 90.000 41.000
D 72.000 94.000 60.000
D 72.000 95.000 59.000
D 73.000 49.000 56.000
D 73.000 49.000 57.000
D 73.000 49.000 58.000
D 73.000 50.000 53.000
D 73.000 50.000 57.000
D 73.000 50.000 58.000
D 73.000 51.000 53.000
D 73.000 51.000 54.000
D 73.000 51.000 58.000
D 73.000 52.000 53.000
D 73.000 52.000 54.000
D 73.000 52.000 55.000
D 73.000 52.000 58.000
D 73.000 52.000 59.000
D 73.000 53.000 56.000
D 73.000 56.000 51.000
D 73.000 57.000 49.000
D 73.000 57.000 50.000
D 73.000 57.000 55.000
D 73.000 57.000 56.000
D 73.000 58.000 49.000
D 73.000 58.000 56.000
D 73.000 83.000 37.000
D 73.000 84.000 36.000
D 73.000 84.000 37.000
D 73.000 84.000 61.000
D 73.000 85.000 34.000
D 73.000 85.000 35.000
D 73.000 85.000 37.000
D 73.000 85.000 60.000
D 73.000 85.000 61.000
D 73.000 85.000 62.000
D 73.000 86.000 36.000
D 73.000 86.000 37.000
D 73.000 86.000 38.000
D 73.000 86.000 39.000
D 73.000 86.000 60.000
D 73.000 86.000 61.000
D 73.000 86.000 62.000
D 73.000 87.000 36.000
D 73.000 87.000 57.000
D 73.000 87.000 58.000
D 73.000 87.000 60.000
D 73.000 87.000 61.000
D 73.000 88.000 57.000
D 73.000 88.000 58.000
D 73.000 88.000 61.000
D 73.000 89.000 58.000
D 73.000 89.000 66.000
D 74.000 31.000 44.000
D 74.000 33.000 37.000
D 74.000 49.000 57.000
D 74.000 50.000 58.000
D 74.000 51.000 34.000
D 74.000 51.000 53.000
D 74.000 51.000 54.000
D 74.000 52.000 53.000
D 74.000 52.000 54.000
D 74.000 52.000 55.000
D 74.000 52.000 56.000
D 74.000 53.000 55.000
D 74.000 53.000 56.000
D 74.000 54.000 44.000
D 74.000 54.000 51.000
D 74.000 54.000 52.000
D 74.000 55.000 43.000
D 74.000 55.000 44.000
D 74.000 55.000 46.000
D 74.000 55.000 47.000
D 74.000 55.000 52.000
D 74.000 55.000 53.000
D 74.000 56.000 51.000
D 74.000 56.000 52.000
D 74.000 56.000 53.000
D 74.000 57.000 43.000
D 74.000 57.000 44.000
D 74.000 57.000 48.000
D 74.000 57.000 49.000
D 74.000 57.000 50.000
D 74.000 57.000 51.000
D 74.000 57.000 53.000
D 74.000 58.000 48.000
D 74.000 58.000 49.000
D 74.000 58.000 50.000
D 74.000 59.000 48.000
D 74.000 59.000 49.000
D 74.000 83.000 33.000
D 74.000 83.000 34.000
D 74.000 84.000 37.000
D 74.000 85.000 37.000
D 74.000 85.000 38.000
D 74.000 85.000 39.000
D 74.000 85.000 56.000
D 74.000 85.000 61.000
D 74.000 85.000 62.000
D 74.000 86.000 35.000
D 74.000 86.000 36.000
D 74.000 86.000 37.000
D 74.000 86.000 39.000
D 74.000 86.000 40.000
D 74.000 86.000 56.000
D 74.000 86.000 57.000
D 74.000 86.000 60.000
D 74.000 86.000 61.000
D 74.000 86.000 64.000
D 74.000 86.000 65.000
D 74.000 87.000 40.000
D 74.000 87.000 57.000
D 74.000 87.000 58.000
D 74.000 87.000 59.000
D 74.000 87.000 60.000
D 74.000 87.000 61.000
D 74.000 87.000 64.000
D 74.000 87.000 65.000
D 74.000 88.000 34.000
D 74.000 88.000 57.000
D 74.000 88.000 58.000
D 74.000 88.000 61.000
D 74.000 88.000 64.000
D 74.000 89.000 63.000
D 74.000 89.000 65.000
D 74.000 93.000 59.000
D 74.000 94.000 64.000
D 74.000 95.000 57.000
D 74.000 95.000 59.000
D 75.000 34.000 42.000
D 75.000 49.000 57.000
D 75.000 51.000 53.000
D 75.000 51.000 54.000
D 75.000 52.000 53.000
D 75.000 52.000 54.000
D 75.000 53.000 38.000
D 75.000 53.000 40.000
D 75.000 53.000 56.000
D 75.000 54.000 37.000
D 75.000 54.000 40.000
D 75.000 54.000 52.000
D 75.000 55.000 43.000
D 75.000 55.000 44.000
D 75.000 55.000 45.000
D 75.000 55.000 46.000
D 75.000 55.000 47.000
D 75.000 55.000 51.000
D 75.000 55.000 52.000
D 75.000 55.000 53.000
D 75.000 56.000 43.000
D 75.000 56.000 44.000
D 75.000 56.000 52.000
D 75.000 57.000 42.000
D 75.000 57.000 43.000
D 75.000 57.000 44.000
D 75.000 57.000 45.000
D 75.000 57.000 48.000
D 75.000 57.000 49.000
D 75.000 58.000 43.000
D 75.000 58.000 44.000
D 75.000 58.000 45.000
D 75.000 58.000 47.000
D 75.000 58.000 48.000
D 75.000 58.000 49.000
D 75.000 58.000 51.000
D 75.000 59.000 49.000
D 75.000 82.000 33.000
D 75.000 84.000 37.000
D 75.000 85.000 38.000
D 75.000 85.000 39.000
D 75.000 85.000 56.000
D 75.000 86.000 32.000
D 75.000 86.000 36.000
D 75.000 86.000 40.000
D 75.000 86.000 41.000
D 75.000 86.000 56.000
D 75.000 86.000 60.000
D 75.000 86.000 61.000
D 75.000 87.000 36.000
D 75.000 87.000 40.000
D 75.000 87.000 60.000
D 75.000 87.000 61.000
D 75.000 88.000 35.000
D 75.000 88.000 44.000
D 75.000 88.000 58.000
D 75.000 88.000 59.000
D 75.000 88.000 60.000
D 75.000 88.000 61.000
D 75.000 88.000 62.000
D 75.000 89.000 61.000
D 75.000 89.000 62.000
D 75.000 90.000 66.000
D 75.000 93.000 58.000
D 76.000 35.000 42.000
D 76.000 51.000 40.000
D 76.000 53.000 36.000
D 76.000 53.000 37.000
D 76.000 53.000 40.000
D 76.000 53.000 41.000
D 76.000 54.000 37.000
D 76.000 54.000 40.000
D 76.000 54.000 41.000
D 76.000 54.000 42.000
D 76.000 55.000 37.000
D 76.000 55.000 40.000
D 76.000 55.000 41.000
D 76.000 55.000 42.000
D 76.000 56.000 40.000
D 76.000 56.000 41.000
D 76.000 56.000 49.000
D 76.000 57.000 43.000
D 76.000 57.000 44.000
D 76.000 58.000 43.000
D 76.000 58.000 44.000
D 76.000 58.000 48.000
D 76.000 83.000 39.000
D 76.000 85.000 36.000
D 76.000 86.000 32.000
D 76.000 86.000 35.000
D 76.000 86.000 36.000
D 76.000 86.000 37.000
D 76.000 86.000 57.000
D 76.000 86.000 60.000
D 76.000 86.000 61.000
D 76.000 87.000 36.000
D 76.000 87.000 60.000
D 76.000 87.000 61.000
D 76.000 88.000 35.000
D 76.000 88.000 37.000
D 76.000 88.000 39.000
D 76.000 88.000 60.000
D 76.000 88.000 61.000
D 76.000 89.000 37.000
D 76.000 89.000 40.000
D 76.000 90.000 41.000
D 76.000 91.000 41.000
D 77.000 38.000 41.000
D 77.000 43.000 60.000
D 77.000 53.000 36.000
D 77.000 54.000 36.000
D 77.000 54.000 37.000
D 77.000 54.000 39.000
D 77.000 54.000 40.000
D 77.000 54.000 43.000
D 77.000 54.000 44.000
D 77.000 55.000 39.000
D 77.000 55.000 40.000
D 77.000 55.000 41.000
D 77.000 55.000 48.000
D 77.000 56.000 39.000
D 77.000 56.000 40.000
D 77.000 56.000 41.000
D 77.000 56.000 43.000
D 77.000 57.000 39.000
D 77.000 57.000 43.000
D 77.000 58.000 44.000
D 77.000 58.000 45.000
D 77.000 79.000 50.000
D 77.000 79.000 51.000
D 77.000 80.000 48.000
D 77.000 80.000 49.000
D 77.000 80.000 50.000
D 77.000 80.000 51.000
D 77.000 80.000 52.000
D 77.000 80.000 53.000
D 77.000 81.000 48.000
D 77.000 81.000 49.000
D 77.000 81.000 50.000
D 77.000 81.000 52.000
D 77.000 81.000 53.000
D 77.000 83.000 44.000
D 77.000 85.000 33.000
D 77.000 85.000 34.000
D 77.000 86.000 36.000
D 77.000 86.000 37.000
D 77.000 86.000 40.000
D 77.000 87.000 37.000
D 77.000 88.000 37.000
D 77.000 88.000 60.000
D 77.000 89.000 37.000
D 77.000 89.000 40.000
D 78.000 44.000 40.000
D 78.000 48.000 56.000
D 78.000 51.000 34.000
D 78.000 52.000 34.000
D 78.000 53.000 33.000
D 78.000 53.000 36.000
D 78.000 53.000 37.000
D 78.000 54.000 36.000
D 78.000 54.000 37.000
D 78.000 55.000 38.000
D 78.000 55.000 40.000
D 78.000 55.000 41.000
D 78.000 55.000 44.000
D 78.000 56.000 40.000
D 78.000 80.000 43.000
D 78.000 80.000 44.000
D 78.000 80.000 45.000
D 78.000 80.000 48.000
D 78.000 80.000 49.000
D 78.000 80.000 50.000
D 78.000 80.000 52.000
D 78.000 80.000 53.000
D 78.000 81.000 43.000
D 78.000 81.000 44.000
D 78.000 81.000 45.000
D 78.000 81.000 47.000
D 78.000 81.000 48.000
D 78.000 81.000 49.000
D 78.000 81.000 50.000
D 78.000 81.000 52.000
D 78.000 81.000 53.000
D 78.000 81.000 54.000
D 78.000 82.000 42.000
D 78.000 82.000 44.000
D 78.000 82.000 47.000
D 78.000 82.000 48.000
D 78.000 83.000 43.000
D 78.000 83.000 44.000
D 78.000 84.000 33.000
D 78.000 85.000 34.000
D 78.000 89.000 37.000
D 79.000 33.000 43.000
D 79.000 79.000 46.000
D 79.000 80.000 42.000
D 79.000 80.000 43.000
D 79.000 80.000 44.000
D 79.000 80.000 45.000
D 79.000 80.000 46.000
D 79.000 80.000 53.000
D 79.000 81.000 40.000
D 79.000 81.000 41.000
D 79.000 81.000 42.000
D 79.000 81.000 43.000
D 79.000 81.000 44.000
D 79.000 81.000 45.000
D 79.000 81.000 46.000
D 79.000 81.000 47.000
D 79.000 81.000 48.000
D 79.000 81.000 53.000
D 79.000 82.000 39.000
D 79.000 82.000 41.000
D 79.000 82.000 42.000
D 79.000 82.000 44.000
D 79.000 82.000 47.000
D 79.000 83.000 43.000
D 79.000 83.000 44.000
D 79.000 84.000 43.000
D 80.000 37.000 38.000
D 80.000 79.000 45.000
D 80.000 79.000 46.000
D 80.000 80.000 41.000
D 80.000 80.000 42.000
D 80.000 80.000 44.000
D 80.000 80.000 45.000
D 80.000 80.000 46.000
D 80.000 80.000 47.000
D 80.000 81.000 40.000
D 80.000 81.000 41.000
D 80.000 81.000 42.000
D 80.000 81.000 43.000
D 80.000 81.000 44.000
D 80.000 81.000 45.000
D 80.000 81.000 46.000
D 80.000 81.000 47.000
D 80.000 82.000 38.000
D 80.000 82.000 39.000
D 80.000 82.000 40.000
D 80.000 82.000 41.000
D 80.000 82.000 42.000
D 80.000 82.000 46.000
D 80.000 82.000 47.000
D 80.000 83.000 38.000
D 80.000 83.000 39.000
D 80.000 83.000 41.000
D 80.000 83.000 43.000
D 80.000 83.000 44.000
D 80.000 83.000 46.000
D 80.000 83.000 47.000
D 80.000 84.000 42.000
D 80.000 84.000 43.000
D 80.000 84.000 44.000
D 80.000 86.000 40.000
D 81.000 78.000 61.000
D 81.000 79.000 41.000
D 81.000 80.000 41.000
D 81.000 80.000 42.000
D 81.000 80.000 44.000
D 81.000 80.000 45.000
D 81.000 80.000 46.000
D 81.000 81.000 40.000
D 81.000 81.000 41.000
D 81.000 81.000 46.000
D 81.000 81.000 47.000
D 81.000 82.000 38.000
D 81.000 82.000 39.000
D 81.000 82.000 40.000
D 81.000 82.000 43.000
D 81.000 82.000 46.000
D 81.000 82.000 47.000
D 81.000 83.000 38.000
D 81.000 83.000 39.000
D 81.000 83.000 41.000
D 81.000 83.000 42.000
D 81.000 83.000 43.000
D 81.000 83.000 44.000
D 81.000 83.000 46.000
D 81.000 83.000 47.000
D 81.000 84.000 41.000
D 81.000 84.000 42.000
D 81.000 84.000 43.000
D 81.000 84.000 44.000
D 82.000 30.000 35.000
D 82.000 33.000 42.000
D 82.000 77.000 61.000
D 82.000 77.000 62.000
D 82.000 77.000 63.000
D 82.000 78.000 61.000
D 82.000 78.000 62.000
D 82.000 79.000 60.000
D 82.000 80.000 41.000
D 82.000 80.000 42.000
D 82.000 80.000 60.000
D 82.000 81.000 38.000
D 82.000 81.000 39.000
D 82.000 81.000 40.000
D 82.000 81.000 41.000
D 82.000 81.000 42.000
D 82.000 82.000 37.000
D 82.000 82.000 38.000
D 82.000 82.000 39.000
D 82.000 82.000 40.000
D 82.000 82.000 42.000
D 82.000 82.000 43.000
D 82.000 82.000 46.000
D 82.000 83.000 38.000
D 82.000 83.000 39.000
D 82.000 83.000 42.000
D 82.000 83.000 43.000
D 82.000 84.000 40.000
D 82.000 84.000 42.000
D 82.000 84.000 43.000
D 83.000 33.000 39.000
D 83.000 74.000 39.000
D 83.000 75.000 39.000
D 83.000 75.000 65.000
D 83.000 75.000 66.000
D 83.000 76.000 61.000
D 83.000 76.000 62.000
D 83.000 76.000 63.000
D 83.000 76.000 65.000
D 83.000 76.000 66.000
D 83.000 77.000 61.000
D 83.000 77.000 62.000
D 83.000 77.000 63.000
D 83.000 77.000 66.000
D 83.000 78.000 61.000
D 83.000 78.000 62.000
D 83.000 79.000 59.000
D 83.000 79.000 60.000
D 83.000 80.000 59.000
D 83.000 80.000 60.000
D 83.000 80.000 63.000
D 83.000 80.000 64.000
D 83.000 81.000 59.000
D 83.000 81.000 60.000
D 83.000 82.000 42.000
D 83.000 82.000 43.000
D 83.000 83.000 42.000
D 83.000 83.000 43.000
D 83.000 84.000 40.000
D 83.000 85.000 40.000
D 83.000 89.000 61.000
D 83.000 90.000 63.000
D 84.000 10.000 60.000
D 84.000 43.000 45.000
D 84.000 44.000 39.000
D 84.000 72.000 36.000
D 84.000 72.000 37.000
D 84.000 73.000 36.000
D 84.000 73.000 37.000
D 84.000 74.000 36.000
D 84.000 74.000 37.000
D 84.000 74.000 65.000
D 84.000 75.000 36.000
D 84.000 75.000 37.000
D 84.000 75.000 38.000
D 84.000 75.000 39.000
D 84.000 75.000 62.000
D 84.000 75.000 64.000
D 84.000 75.000 65.000
D 84.000 75.000 66.000
D 84.000 76.000 38.000
D 84.000 76.000 39.000
D 84.000 76.000 40.000
D 84.000 76.000 60.000
D 84.000 76.000 61.000
D 84.000 76.000 62.000
D 84.000 76.000 63.000
D 84.000 76.000 64.000
D 84.000 76.000 65.000
D 84.000 76.000 66.000
D 84.000 77.000 38.000
D 84.000 77.000 41.000
D 84.000 77.000 42.000
D 84.000 77.000 43.000
D 84.000 77.000 60.000
D 84.000 77.000 61.000
D 84.000 77.000 62.000
D 84.000 77.000 63.000
D 84.000 77.000 64.000
D 84.000 77.000 66.000
D 84.000 78.000 40.000
D 84.000 78.000 42.000
D 84.000 78.000 59.000
D 84.000 78.000 60.000
D 84.000 78.000 61.000
D 84.000 78.000 62.000
D 84.000 78.000 64.000
D 84.000 78.000 65.000
D 84.000 78.000 66.000
D 84.000 78.000 67.000
D 84.000 79.000 59.000
D 84.000 79.000 63.000
D 84.000 79.000 64.000
D 84.000 79.000 65.000
D 84.000 79.000 66.000
D 84.000 80.000 59.000
D 84.000 80.000 63.000
D 84.000 83.000 40.000
D 84.000 87.000 64.000
D 84.000 88.000 57.000
D 84.000 88.000 65.000
D 84.000 89.000 53.000
D 84.000 111.000 56.000
D 85.000 40.000 41.000
D 85.000 46.000 44.000
D 85.000 47.000 38.000
D 85.000 73.000 35.000
D 85.000 73.000 36.000
D 85.000 73.000 40.000
D 85.000 74.000 35.000
D 85.000 74.000 36.000
D 85.000 74.000 40.000
D 85.000 74.000 62.000
D 85.000 75.000 35.000
D 85.000 75.000 36.000
D 85.000 75.000 39.000
D 85.000 75.000 40.000
D 85.000 75.000 62.000
D 85.000 75.000 64.000
D 85.000 75.000 68.000
D 85.000 76.000 36.000
D 85.000 76.000 38.000
D 85.000 76.000 39.000
D 85.000 76.000 69.000
D 85.000 76.000 70.000
D 85.000 77.000 35.000
D 85.000 77.000 38.000
D 85.000 77.000 39.000
D 85.000 77.000 40.000
D 85.000 77.000 41.000
D 85.000 77.000 42.000
D 85.000 77.000 43.000
D 85.000 77.000 61.000
D 85.000 77.000 64.000
D 85.000 77.000 69.000
D 85.000 78.000 38.000
D 85.000 78.000 41.000
D 85.000 78.000 55.000
D 85.000 78.000 58.000
D 85.000 78.000 61.000
D 85.000 78.000 62.000
D 85.000 78.000 63.000
D 85.000 78.000 64.000
D 85.000 78.000 66.000
D 85.000 78.000 67.000
D 85.000 79.000 61.000
D 85.000 79.000 62.000
D 85.000 79.000 63.000
D 85.000 79.000 64.000
D 85.000 79.000 66.000
D 85.000 80.000 44.000
D 85.000 80.000 61.000
D 85.000 88.000 53.000
D 85.000 89.000 59.000
D 86.000 21.000 44.000
D 86.000 22.000 41.000
D 86.000 29.000 39.000
D 86.000 34.000 33.000
D 86.000 36.000 43.000
D 86.000 44.000 43.000
D 86.000 72.000 40.000
D 86.000 73.000 40.000
D 86.000 74.000 36.000
D 86.000 74.000 40.000
D 86.000 75.000 32.000
D 86.000 76.000 40.000
D 86.000 76.000 43.000
D 86.000 76.000 59.000
D 86.000 76.000 66.000
D 86.000 76.000 69.000
D 86.000 77.000 38.000
D 86.000 77.000 42.000
D 86.000 77.000 43.000
D 86.000 77.000 61.000
D 86.000 77.000 62.000
D 86.000 77.000 63.000
D 86.000 77.000 64.000
D 86.000 77.000 65.000
D 86.000 77.000 66.000
D 86.000 78.000 58.000
D 86.000 78.000 61.000
D 86.000 78.000 62.000
D 86.000 78.000 63.000
D 86.000 78.000 64.000
D 86.000 78.000 65.000
D 86.000 78.000 66.000
D 86.000 79.000 62.000
D 86.000 79.000 63.000
D 86.000 79.000 64.000
D 86.000 80.000 63.000
D 87.000 20.000 39.000
D 87.000 23.000 49.000
D 87.000 25.000 63.000
D 87.000 26.000 48.000
D 87.000 30.000 43.000
D 87.000 39.000 40.000
D 87.000 75.000 38.000
D 87.000 75.000 39.000
D 87.000 76.000 37.000
D 87.000 76.000 38.000
D 87.000 76.000 65.000
D 87.000 77.000 37.000
D 87.000 77.000 42.000
D 87.000 77.000 65.000
D 87.000 77.000 66.000
D 87.000 78.000 66.000
D 87.000 87.000 52.000
D 87.000 88.000 55.000
D 88.000 23.000 51.000
D 88.000 24.000 39.000
D 88.000 24.000 45.000
D 88.000 24.000 48.000
D 88.000 26.000 40.000
D 88.000 26.000 44.000
D 88.000 27.000 41.000
D 88.000 28.000 42.000
D 88.000 30.000 41.000
D 88.000 33.000 40.000
D 88.000 33.000 41.000
D 88.000 67.000 42.000
D 88.000 75.000 37.000
D 88.000 75.000 38.000
D 88.000 79.000 41.000
D 88.000 87.000 36.000
D 89.000 24.000 49.000
D 89.000 25.000 43.000
D 89.000 25.000 44.000
D 89.000 32.000 37.000
D 89.000 78.000 42.000
D 89.000 98.000 43.000
D 90.000 20.000 47.000
D 90.000 22.000 50.000
D 90.000 26.000 49.000
D 90.000 27.000 44.000
D 90.000 28.000 40.000
D 90.000 28.000 42.000
D 90.000 29.000 44.000
D 90.000 31.000 34.000
D 90.000 32.000 39.000
D 90.000 35.000 44.000
D 90.000 68.000 48.000
D 90.000 87.000 35.000
D 90.000 88.000 39.000
D 91.000 25.000 42.000
D 91.000 25.000 44.000
D 91.000 27.000 33.000
D 91.000 27.000 41.000
D 91.000 27.000 42.000
D 91.000 28.000 41.000
D 91.000 31.000 37.000
D 91.000 32.000 38.000
D 91.000 65.000 39.000
D 91.000 67.000 35.000
D 91.000 68.000 38.000
D 91.000 68.000 47.000
D 91.000 68.000 48.000
D 91.000 69.000 46.000
D 91.000 69.000 47.000
D 91.000 69.000 48.000
D 91.000 72.000 47.000
D 91.000 88.000 36.000
D 91.000 88.000 38.000
D 91.000 89.000 38.000
D 91.000 92.000 36.000
D 92.000 16.000 45.000
D 92.000 22.000 43.000
D 92.000 32.000 42.000
D 92.000 35.000 37.000
D 92.000 65.000 43.000
D 92.000 69.000 47.000
D 92.000 89.000 33.000
D 92.000 89.000 35.000
D 92.000 91.000 35.000
D 92.000 94.000 36.000
D 93.000 20.000 44.000
D 93.000 32.000 42.000
D 93.000 67.000 44.000
D 93.000 68.000 42.000
D 93.000 68.000 43.000
D 93.000 68.000 44.000
D 93.000 68.000 45.000
D 93.000 69.000 45.000
D 93.000 69.000 46.000
D 93.000 69.000 48.000
D 93.000 70.000 48.000
D 93.000 70.000 49.000
D 93.000 86.000 58.000
D 93.000 88.000 36.000
D 93.000 89.000 53.000
D 93.000 90.000 36.000
D 93.000 90.000 37.000
D 93.000 92.000 40.000
D 94.000 24.000 43.000
D 94.000 30.000 42.000
D 94.000 66.000 43.000
D 94.000 67.000 41.000
D 94.000 67.000 42.000
D 94.000 67.000 44.000
D 94.000 67.000 48.000
D 94.000 67.000 49.000
D 94.000 68.000 41.000
D 94.000 68.000 42.000
D 94.000 68.000 44.000
D 94.000 68.000 45.000
D 94.000 68.000 46.000
D 94.000 69.000 42.000
D 94.000 69.000 44.000
D 94.000 69.000 45.000
D 94.000 69.000 46.000
D 94.000 69.000 48.000
D 94.000 70.000 41.000
D 94.000 70.000 45.000
D 94.000 70.000 47.000
D 94.000 70.000 48.000
D 94.000 71.000 45.000
D 94.000 82.000 35.000
D 94.000 82.000 38.000
D 94.000 83.000 31.000
D 94.000 87.000 35.000
D 94.000 90.000 34.000
D 94.000 91.000 34.000
D 94.000 91.000 35.000
D 95.000 30.000 41.000
D 95.000 31.000 43.000
D 95.000 33.000 44.000
D 95.000 66.000 47.000
D 95.000 66.000 48.000
D 95.000 67.000 47.000
D 95.000 68.000 40.000
D 95.000 68.000 44.000
D 95.000 68.000 49.000
D 95.000 69.000 44.000
D 95.000 82.000 63.000
D 95.000 83.000 63.000
D 95.000 84.000 33.000
D 95.000 85.000 35.000
D 95.000 85.000 61.000
D 95.000 87.000 51.000
D 96.000 67.000 44.000
D 96.000 70.000 43.000
D 96.000 70.000 46.000
D 96.000 80.000 35.000
D 96.000 82.000 35.000
D 96.000 84.000 32.000
D 96.000 84.000 35.000
D 96.000 87.000 58.000
D 96.000 89.000 37.000
D 96.000 91.000 35.000
D 96.000 111.000 54.000
D 97.000 67.000 43.000
D 97.000 67.000 44.000
D 97.000 69.000 48.000
D 97.000 73.000 42.000
D 97.000 79.000 36.000
D 97.000 82.000 35.000
D 97.000 85.000 36.000
D 97.000 115.000 44.000
D 98.000 30.000 45.000
D 98.000 45.000 62.000
D 98.000 70.000 42.000
D 98.000 70.000 44.000
D 98.000 75.000 58.000
D 98.000 82.000 36.000
D 99.000 23.000 47.000
D 99.000 45.000 59.000
D 99.000 46.000 61.000
D 100.000 38.000 43.000
D 100.000 45.000 62.000
D 100.000 81.000 36.000
D 100.000 85.000 38.000
D 100.000 85.000 39.000
D 101.000 39.000 42.000
D 101.000 45.000 61.000
D 101.000 85.000 55.000
D 101.000 105.000 56.000
D 101.000 127.000 35.000
D 102.000 84.000 52.000
D 102.000 107.000 55.000
D 102.000 127.000 34.000
D 103.000 84.000 34.000
D 103.000 117.000 48.000
D 104.000 63.000 58.000
D 104.000 81.000 35.000
D 104.000 106.000 51.000
D 104.000 107.000 52.000
D 105.000 71.000 39.000
D 105.000 78.000 60.000
D 105.000 80.000 36.000
D 105.000 106.000 54.000
D 106.000 81.000 37.000
D 107.000 64.000 58.000
D 108.000 73.000 61.000
D 108.000 105.000 54.000
D 109.000 108.000 34.000
D 109.000 109.000 48.000
D 110.000 20.000 39.000
D 110.000 107.000 31.000
D 111.000 96.000 33.000
D 112.000 14.000 45.000
D 112.000 20.000 39.000
D 112.000 95.000 34.000
D 112.000 97.000 34.000
D 112.000 97.000 59.000
D 112.000 101.000 39.000
D 113.000 22.000 39.000
D 113.000 22.000 43.000
D 113.000 101.000 37.000
D 114.000 19.000 44.000
D 114.000 36.000 53.000
D 114.000 98.000 39.000
D 114.000 100.000 33.000
D 115.000 19.000 47.000
D 115.000 27.000 37.000
D 115.000 68.000 57.000
D 115.000 96.000 31.000
D 115.000 98.000 36.000
D 115.000 101.000 35.000
D 116.000 96.000 36.000
D 116.000 97.000 32.000
D 117.000 99.000 38.000
D 117.000 117.000 52.000
D 118.000 95.000 36.000
D 118.000 95.000 40.000
D 118.000 96.000 34.000
D 118.000 102.000 36.000
D 119.000 57.000 58.000
D 119.000 95.000 35.000
D 119.000 96.000 37.000
D 119.000 97.000 41.000
D 119.000 98.000 39.000
D 119.000 100.000 39.000
D 119.000 103.000 35.000
D 119.000 117.000 46.000
D 120.000 69.000 54.000
D 120.000 72.000 39.000
D 120.000 97.000 43.000
D 120.000 106.000 36.000
D 120.000 112.000 39.000
D 121.000 59.000 61.000
D 121.000 64.000 62.000
D 121.000 91.000 35.000
D 121.000 100.000 31.000
D 121.000 106.000 37.000
D 121.000 109.000 33.000
D 121.000 110.000 33.000
D 121.000 111.000 34.000
D 121.000 112.000 37.000
D 122.000 66.000 62.000
D 122.000 98.000 33.000
D 122.000 111.000 40.000
D 123.000 51.000 58.000
D 123.000 62.000 56.000
D 123.000 66.000 57.000
D 123.000 66.000 59.000
D 123.000 96.000 36.000
D 123.000 108.000 35.000
D 123.000 109.000 34.000
D 123.000 118.000 36.000
D 124.000 33.000 42.000
D 124.000 38.000 37.000
D 124.000 63.000 62.000
D 124.000 77.000 41.000
D 124.000 105.000 53.000
D 124.000 121.000 33.000
D 125.000 12.000 45.000
D 125.000 89.000 39.000
D 125.000 95.000 35.000
D 125.000 108.000 51.000
D 125.000 109.000 35.000
D 126.000 74.000 36.000
D 126.000 109.000 40.000
D 127.000 40.000 55.000
D 127.000 45.000 42.000
D 127.000 89.000 37.000
D 127.000 115.000 36.000
D 127.000 116.000 35.000
D 128.000 59.000 60.000
D 128.000 85.000 39.000
D 128.000 87.000 45.000
D 128.000 106.000 34.000
D 129.000 87.000 39.000
D 130.000 88.000 50.000
D 130.000 113.000 38.000
D 131.000 83.000 35.000
D 131.000 88.000 41.000
D 131.000 116.000 36.000
D 131.000 118.000 34.000
D 132.000 43.000 41.000
D 132.000 82.000 34.000
D 132.000 84.000 40.000
D 132.000 112.000 32.000
D 132.000 115.000 34.000
D 133.000 91.000 36.000
D 133.000 92.000 32.000
D 133.000 96.000 40.000
D 134.000 80.000 34.000
D 134.000 90.000 37.000
D 134.000 93.000 32.000
D 135.000 91.000 37.000
D 135.000 96.000 36.000
D 135.000 107.000 30.000
