65

C 56.000 65.000 45.000
C 57.000 67.000 49.000
C 58.000 63.000 46.000
C 58.000 63.000 47.000
C 58.000 64.000 46.000
C 58.000 65.000 46.000
C 58.000 65.000 49.000
C 58.000 66.000 46.000
C 58.000 66.000 47.000
C 58.000 66.000 49.000
C 58.000 67.000 46.000
C 58.000 68.000 49.000
C 59.000 63.000 45.000
C 59.000 63.000 46.000
C 59.000 63.000 47.000
C 59.000 64.000 46.000
C 59.000 64.000 47.000
C 59.000 65.000 46.000
C 59.000 65.000 49.000
C 59.000 65.000 50.000
C 59.000 66.000 45.000
C 59.000 66.000 46.000
C 59.000 66.000 49.000
C 59.000 67.000 45.000
C 59.000 67.000 46.000
C 59.000 68.000 50.000
C 60.000 63.000 45.000
C 60.000 63.000 46.000
C 60.000 64.000 46.000
C 60.000 64.000 47.000
C 60.000 65.000 49.000
C 60.000 65.000 50.000
C 60.000 66.000 50.000
C 60.000 67.000 45.000
C 60.000 67.000 46.000
C 60.000 67.000 49.000
C 60.000 67.000 50.000
C 61.000 65.000 47.000
C 61.000 65.000 48.000
C 61.000 66.000 47.000
C 61.000 66.000 48.000
C 61.000 67.000 46.000
C 61.000 67.000 49.000
C 61.000 67.000 50.000
C 61.000 68.000 46.000
C 62.000 64.000 47.000
C 62.000 64.000 48.000
C 62.000 65.000 44.000
C 62.000 65.000 47.000
C 62.000 65.000 48.000
C 62.000 66.000 44.000
C 62.000 66.000 47.000
C 62.000 66.000 48.000
C 62.000 67.000 47.000
C 62.000 68.000 47.000
C 63.000 65.000 44.000
C 63.000 65.000 45.000
C 63.000 66.000 44.000
C 63.000 66.000 45.000
C 73.000 57.000 49.000
C 73.000 58.000 49.000
C 74.000 57.000 43.000
C 74.000 57.000 44.000
C 75.000 57.000 42.000
C 75.000 58.000 43.000
