111

C 83.000 74.000 39.000
C 83.000 75.000 39.000
C 84.000 72.000 36.000
C 84.000 72.000 37.000
C 84.000 73.000 36.000
C 84.000 73.000 37.000
C 84.000 74.000 36.000
C 84.000 74.000 37.000
C 84.000 75.000 36.000
C 84.000 75.000 37.000
C 84.000 75.000 38.000
C 84.000 75.000 39.000
C 84.000 76.000 38.000
C 84.000 76.000 39.000
C 84.000 76.000 40.000
C 84.000 77.000 38.000
C 84.000 77.000 41.000
C 84.000 77.000 42.000
C 84.000 77.000 43.000
C 84.000 78.000 40.000
C 85.000 73.000 35.000
C 85.000 73.000 36.000
C 85.000 73.000 40.000
C 85.000 74.000 35.000
C 85.000 74.000 36.000
C 85.000 74.000 40.000
C 85.000 75.000 35.000
C 85.000 75.000 36.000
C 85.000 75.000 39.000
C 85.000 75.000 40.000
C 85.000 76.000 36.000
C 85.000 76.000 38.000
C 85.000 76.000 39.000
C 85.000 77.000 35.000
C 85.000 77.000 38.000
C 85.000 77.000 39.000
C 85.000 77.000 40.000
C 85.000 77.000 41.000
C 85.000 77.000 42.000
C 85.000 77.000 43.000
C 85.000 78.000 38.000
C 85.000 78.000 41.000
C 86.000 72.000 40.000
C 86.000 73.000 40.000
C 86.000 74.000 36.000
C 86.000 74.000 40.000
C 86.000 75.000 32.000
C 86.000 76.000 40.000
C 86.000 76.000 43.000
C 86.000 77.000 38.000
C 86.000 77.000 42.000
C 86.000 77.000 43.000
C 87.000 75.000 38.000
C 87.000 75.000 39.000
C 87.000 76.000 37.000
C 87.000 76.000 38.000
C 87.000 77.000 37.000
C 87.000 77.000 42.000
C 88.000 67.000 42.000
C 88.000 75.000 37.000
C 88.000 75.000 38.000
C 88.000 79.000 41.000
C 89.000 78.000 42.000
C 90.000 68.000 48.000
C 91.000 65.000 39.000
C 91.000 67.000 35.000
C 91.000 68.000 38.000
C 91.000 68.000 47.000
C 91.000 68.000 48.000
C 91.000 69.000 46.000
C 91.000 69.000 47.000
C 91.000 69.000 48.000
C 91.000 72.000 47.000
C 92.000 65.000 43.000
C 92.000 69.000 47.000
C 93.000 67.000 44.000
C 93.000 68.000 42.000
C 93.000 68.000 43.000
C 93.000 68.000 44.000
C 93.000 68.000 45.000
C 93.000 69.000 45.000
C 93.000 69.000 46.000
C 94.000 66.000 43.000
C 94.000 67.000 41.000
C 94.000 67.000 42.000
C 94.000 67.000 44.000
C 94.000 67.000 48.000
C 94.000 68.000 41.000
C 94.000 68.000 42.000
C 94.000 68.000 44.000
C 94.000 68.000 45.000
C 94.000 68.000 46.000
C 94.000 69.000 42.000
C 94.000 69.000 44.000
C 94.000 69.000 45.000
C 94.000 69.000 46.000
C 94.000 70.000 41.000
C 94.000 70.000 45.000
C 94.000 71.000 45.000
C 95.000 66.000 47.000
C 95.000 66.000 48.000
C 95.000 67.000 47.000
C 95.000 68.000 40.000
C 95.000 68.000 44.000
C 95.000 69.000 44.000
C 96.000 67.000 44.000
C 96.000 70.000 43.000
C 97.000 67.000 43.000
C 97.000 67.000 44.000
C 97.000 73.000 42.000
C 98.000 70.000 42.000
